[General]
network = Network
sim-time-limit = 200s

Network.nodeTx.gen.generationInterval=exponential(0.1)
Network.nodeTx.gen.packetBySize = 12500
Network.queue.bufferSize = 200
Network.nodeRx.bufferSize = 200
Network.nodeTx.bufferSize = 2000000
