[General]
network = Network
sim-time-limit = 200s

Network.Transmitter.traTx.bufferSize = 2000000
Network.Transmitter.gen.generationInterval=exponential(0.1)
Network.Transmitter.gen.packetByteSize = 12500

Network.Subnet.bufferSize = 100

Network.FeedbackChannel.bufferSize = 200

Network.Receiver.traRx.bufferSize = 200


